variable        infile index data.water_1NaSCN
variable        mytemp index 298

# set up simulation
# the following information is saved to restart files
units           real
atom_style      full
boundary        p p p
pair_style      lj/cut/coul/long 12
kspace_style    ewald 0.0001
pair_modify     tail yes
pair_modify     mix arithmetic
special_bonds   amber

bond_style      harmonic
angle_style     harmonic
#dihedral_style  charmm
#improper_style  cvff

read_data       data.water_1NaSCN
  orthogonal box = (0 0 0) to (42.8272 42.8272 42.8272)
  reading atoms ...
  7504 atoms
  reading velocities ...
  7504 velocities
  scanning bonds ...
  scanning angles ...
  reading bonds ...
  5002 bonds
  reading angles ...
  2501 angles

neighbor        2.0 bin
neigh_modify    delay 0 every 1 check yes page 1000000 one 20000
timestep        1.0

## end information that is saved to restart files

## create velocity profile
velocity        all create  298 314159265 units box
velocity        all zero linear units box
dump            DUMP all custom 500 mol.lammpstrj id type x y z vx vy vz mol
thermo_style    custom step vol temp press ke pe etotal enthalpy evdwl ecoul epair ebond eangle edihed eimp emol elong etail lx ly lz xy xz yz density
thermo          2000
#
## thermostat and integrator
#
group          rigid type 1 2 3 4 5
7503 atoms in group rigid
group          mobile type 6
1 atoms in group mobile

fix            rigid rigid rigid/nvt/small molecule temp 298 298 100.0
2501 rigid bodies with 7503 atoms
  73.6819 = max distance from body owner to body atom

#minimize       1e-4 1e-6 10000 10000

#fix             shake all shake 0.0001 20 0 b 1 a 1
fix             NVT mobile nvt temp 298 298 100.0

restart         50000 restart.mol.1 restart.mol.2
run             1000000
Ewald initialization ...
  G vector (1/distance) = 0.210766
  estimated absolute RMS force accuracy = 0.034194
  estimated relative force accuracy = 0.000102974
  KSpace vectors: actual max1d max3d = 1054 8 2456
                  kxmax kymax kzmax  = 8 8 8
Step Volume Temp Press KinEng PotEng TotEng Enthalpy E_vdwl E_coul E_pair E_bond E_angle E_dihed E_impro E_mol E_long E_tail Lx Ly Lz Xy Xz Yz Density
0    78552.325    251.92214    234.30208    3756.1621   -18143.853   -14387.691   -14119.273    3202.6759      74287.8   -22082.571    3275.7018    663.01615            0            0    3938.7179   -99573.047   -60.522582      42.8272      42.8272      42.8272            0            0            0   0.95382647
Averages over the last 251 of 501 rows, steps 500000 to 1000000:
Volume Temp Press KinEng PotEng TotEng Enthalpy E_vdwl E_coul E_pair E_bond E_angle E_dihed E_impro E_mol E_long E_tail Lx Ly Lz Xy Xz Yz Density
78552.3 297.674 -190.466 4438.32 -18194.1 -13755.8 -13974 2917.45 74527.1 -22132.7 3275.17 663.358 0 0 3938.53 -99577.3 -60.5226 42.8272 42.8272 42.8272 0 0 0 0.953826
Loop time of 44969 on 16 procs for 1000000 steps with 7504 atoms

Pair  time (%) = 13725 (30.5211)
Bond  time (%) = 47.9372 (0.106601)
Kspce time (%) = 19114.8 (42.5066)
Neigh time (%) = 1029.81 (2.29005)
Comm  time (%) = 6072.99 (13.5048)
Outpt time (%) = 10.4043 (0.0231367)
Other time (%) = 4967.99 (11.0476)

write_restart   restart.mol
Ewald initialization ...
  G vector (1/distance) = 0.210766
  estimated absolute RMS force accuracy = 0.034194
  estimated relative force accuracy = 0.000102974
  KSpace vectors: actual max1d max3d = 1054 8 2456
                  kxmax kymax kzmax  = 8 8 8
write_data      restart.data
Ewald initialization ...
  G vector (1/distance) = 0.210766
  estimated absolute RMS force accuracy = 0.034194
  estimated relative force accuracy = 0.000102974
  KSpace vectors: actual max1d max3d = 1054 8 2456
                  kxmax kymax kzmax  = 8 8 8
